
          11280715022D 1   1.00000     0.00000     0

 64 71  0     0  0            999 V2000
    1.9417   -2.2667    0.0000 C   0  0  0  0  0  0           0  0  0
    1.9417   -3.0917    0.0000 C   0  0  0  0  0  0           0  0  0
    1.2292   -1.8542    0.0000 C   0  0  0  0  0  0           0  0  0
    1.2292   -3.5000    0.0000 C   0  0  0  0  0  0           0  0  0
    1.2292   -1.0250    0.0000 C   0  0  0  0  0  0           0  0  0
    1.2292   -4.3167    0.0000 C   0  0  0  0  0  0           0  0  0
    2.6542   -1.8542    0.0000 C   0  0  0  0  0  0           0  0  0
    2.6542   -3.5000    0.0000 C   0  0  0  0  0  0           0  0  0
    1.9417   -4.7375    0.0000 C   0  0  0  0  0  0           0  0  0
    1.9417   -0.6125    0.0000 C   0  0  0  0  0  0           0  0  0
    0.5167   -3.0875    0.0000 O   0  0  0  0  0  0           0  0  0
    0.5167   -2.2625    0.0000 O   0  0  0  0  0  0           0  0  0
    0.6667   -0.5542    0.0000 O   0  0  0  0  0  0           0  0  0
    0.5125   -4.7375    0.0000 O   0  0  0  0  0  0           0  0  0
    2.6542   -1.0250    0.0000 C   0  0  0  0  0  0           0  0  0
    2.6542   -4.3167    0.0000 C   0  0  0  0  0  0           0  0  0
    1.9375    0.2125    0.0000 O   0  0  0  0  0  0           0  0  0
    1.9417   -5.5625    0.0000 O   0  0  0  0  0  0           0  0  0
   -0.1958   -1.8500    0.0000 C   0  0  0  0  0  0           0  0  0
   -0.2000   -3.5000    0.0000 C   0  0  0  0  0  0           0  0  0
    0.5125   -5.5625    0.0000 C   0  0  0  0  0  0           0  0  0
    0.6292    0.1958    0.0000 C   0  0  0  0  0  0           0  0  0
    2.6542    0.6250    0.0000 C   0  0  0  0  0  0           0  0  0
    2.6542   -5.9750    0.0000 C   0  0  0  0  0  0           0  0  0
    3.3750   -2.2667    0.0000 C   0  0  0  0  0  0           0  0  0
    3.3667   -3.0792    0.0000 C   0  0  0  0  0  0           0  0  0
   -0.2000   -5.9750    0.0000 C   0  0  0  0  0  0           0  0  0
   -0.9125   -3.0792    0.0000 C   0  0  0  0  0  0           0  0  0
    0.9250    0.9250    0.0000 C   0  0  0  0  0  0           0  0  0
   -0.4125   -1.0500    0.0000 C   0  0  0  0  0  0           0  0  0
    2.6542   -6.8000    0.0000 C   0  0  0  0  0  0           0  0  0
    3.3667    0.2208    0.0000 C   0  0  0  0  0  0           0  0  0
    4.0875   -1.8500    0.0000 O   0  0  0  0  0  0           0  0  0
    4.0875   -3.4917    0.0000 O   0  0  0  0  0  0           0  0  0
    0.5042    1.6333    0.0000 C   0  0  0  0  0  0           0  0  0
    4.0750    0.6333    0.0000 C   0  0  0  0  0  0           0  0  0
   -0.9125   -5.5542    0.0000 C   0  0  0  0  0  0           0  0  0
   -0.2000   -6.7917    0.0000 C   0  0  0  0  0  0           0  0  0
    0.1667   -0.4542    0.0000 C   0  0  0  0  0  0           0  0  0
   -1.2125   -0.8375    0.0000 C   0  0  0  0  0  0           0  0  0
    3.3667   -0.6042    0.0000 C   0  0  0  0  0  0           0  0  0
    1.9417   -7.2125    0.0000 C   0  0  0  0  0  0           0  0  0
    3.3750   -7.2042    0.0000 C   0  0  0  0  0  0           0  0  0
   -0.9083   -2.2625    0.0000 C   0  0  0  0  0  0           0  0  0
   -1.6250   -3.5000    0.0000 C   0  0  0  0  0  0           0  0  0
    1.7500    0.9333    0.0000 C   0  0  0  0  0  0           0  0  0
   -0.9083   -7.2042    0.0000 C   0  0  0  0  0  0           0  0  0
    4.0792   -1.0167    0.0000 C   0  0  0  0  0  0           0  0  0
   -1.6208   -1.8500    0.0000 C   0  0  0  0  0  0           0  0  0
   -2.3375   -3.0917    0.0000 C   0  0  0  0  0  0           0  0  0
    2.1542    1.6458    0.0000 C   0  0  0  0  0  0           0  0  0
   -0.0458    0.3458    0.0000 C   0  0  0  0  0  0           0  0  0
    1.9417   -8.0375    0.0000 C   0  0  0  0  0  0           0  0  0
    3.3792   -8.0292    0.0000 C   0  0  0  0  0  0           0  0  0
   -1.4333   -0.0417    0.0000 C   0  0  0  0  0  0           0  0  0
    0.9125    2.3500    0.0000 C   0  0  0  0  0  0           0  0  0
    4.7917    0.2250    0.0000 C   0  0  0  0  0  0           0  0  0
   -1.6333   -5.9667    0.0000 C   0  0  0  0  0  0           0  0  0
    2.6625   -8.4500    0.0000 C   0  0  0  0  0  0           0  0  0
    1.7417    2.3583    0.0000 C   0  0  0  0  0  0           0  0  0
    4.7917   -0.6042    0.0000 C   0  0  0  0  0  0           0  0  0
   -1.6333   -6.7917    0.0000 C   0  0  0  0  0  0           0  0  0
   -2.3375   -2.2625    0.0000 C   0  0  0  0  0  0           0  0  0
   -0.8500    0.5583    0.0000 C   0  0  0  0  0  0           0  0  0
  2  1  1  0     0  0
  3  1  1  0     0  0
  4  2  2  0     0  0
  5  3  2  0     0  0
  6  4  1  0     0  0
  7  1  2  0     0  0
  8  2  1  0     0  0
  9 16  1  0     0  0
 10 15  2  0     0  0
 11  4  1  0     0  0
 12  3  1  0     0  0
 13  5  1  0     0  0
 14  6  1  0     0  0
 15  7  1  0     0  0
 16  8  2  0     0  0
 17 10  1  0     0  0
 18  9  1  0     0  0
 19 12  1  0     0  0
 20 11  1  0     0  0
 21 14  1  0     0  0
 22 13  1  0     0  0
 23 17  1  0     0  0
 24 18  1  0     0  0
 25  7  1  0     0  0
 26  8  1  0     0  0
 27 21  1  0     0  0
 28 20  1  0     0  0
 29 22  1  0     0  0
 30 19  1  0     0  0
 31 24  1  0     0  0
 32 23  1  0     0  0
 33 25  1  0     0  0
 34 26  1  0     0  0
 35 29  1  0     0  0
 36 32  1  0     0  0
 37 27  2  0     0  0
 38 27  1  0     0  0
 39 30  2  0     0  0
 40 30  1  0     0  0
 41 32  2  0     0  0
 42 31  2  0     0  0
 43 31  1  0     0  0
 44 28  2  0     0  0
 45 28  1  0     0  0
 46 29  2  0     0  0
 47 38  2  0     0  0
 48 41  1  0     0  0
 49 44  1  0     0  0
 50 45  2  0     0  0
 51 46  1  0     0  0
 52 39  1  0     0  0
 53 42  1  0     0  0
 54 43  2  0     0  0
 55 40  2  0     0  0
 56 35  2  0     0  0
 57 36  2  0     0  0
 58 37  1  0     0  0
 59 54  1  0     0  0
 60 51  2  0     0  0
 61 48  2  0     0  0
 62 47  1  0     0  0
 63 50  1  0     0  0
 64 55  1  0     0  0
 10  5  1  0     0  0
  9  6  2  0     0  0
 64 52  2  0     0  0
 56 60  1  0     0  0
 63 49  2  0     0  0
 61 57  1  0     0  0
 62 58  2  0     0  0
 59 53  2  0     0  0
M  END
>  <MOLREGNO>
94560

>  <CHEMBLID>
CHEMBL61518

>  <SYNONYMS>


>  <MAX_PHASE>
0

>  <MOLWEIGHT>
851.01

>  <ALOGP>
11.81

>  <PSA>
95.84

>  <HBA>
8

>  <HBD>
2

>  <RO5>
2

>  <RTB>
21

>  <RO3>
N

>  <ACD_MOST_APKA>
13.48

>  <ACD_MOST_BPKA>


>  <ACD_LOGP>
5.86

>  <ACD_LOGD>
5.86

>  <AROMATIC_RINGS>
8

>  <HEAVY_ATOMS>
64

>  <QED_WEIGHTED>
.07

>  <HBA_LIPINSKI>
8

>  <HBD_LIPINSKI>
2

>  <NUM_LIPINSKI_RO5_VIOLATIONS>
2

>  <MW_MONOISOTOPIC>
850.3506

>  <MOLECULAR_SPECIES>
NEUTRAL

>  <FULL_MOLFORMULA>
C56H50O8

$$$$

          02060813462D 1   1.00000     0.00000     0

 54 59  0     0  0            999 V2000
   -0.6890   -8.6944    0.0000 N   0  0  3  0  0  0           0  0  0
    0.7520  -11.9916    0.0000 N   0  0  3  0  0  0           0  0  0
   -1.3949   -9.9321    0.0000 N   0  0  0  0  0  0           0  0  0
   -1.3962  -10.7598    0.0000 C   0  0  0  0  0  0           0  0  0
   -0.6832  -11.1727    0.0000 N   0  0  0  0  0  0           0  0  0
   -0.6852   -9.5194    0.0000 C   0  0  0  0  0  0           0  0  0
    0.0330   -9.9282    0.0000 C   0  0  0  0  0  0           0  0  0
    0.0340  -10.7556    0.0000 C   0  0  0  0  0  0           0  0  0
    0.7500  -11.1665    0.0000 C   0  0  0  0  0  0           0  0  0
    1.4653  -10.7513    0.0000 N   0  0  0  0  0  0           0  0  0
    1.4603   -9.9207    0.0000 C   0  0  0  0  0  0           0  0  0
    0.7437   -9.5135    0.0000 N   0  0  0  0  0  0           0  0  0
   -2.1113  -11.1713    0.0000 N   0  0  3  0  0  0           0  0  0
   -2.8252  -10.7577    0.0000 C   0  0  0  0  0  0           0  0  0
   -3.5402  -11.1692    0.0000 C   0  0  0  0  0  0           0  0  0
   -4.2541  -10.7556    0.0000 O   0  0  0  0  0  0           0  0  0
   -2.1125  -11.9963    0.0000 C   0  0  0  0  0  0           0  0  0
   -2.8276  -12.4077    0.0000 C   0  0  0  0  0  0           0  0  0
   -2.8287  -13.2327    0.0000 O   0  0  0  0  0  0           0  0  0
    2.1721   -9.5037    0.0000 N   0  0  3  0  0  0           0  0  0
    2.8892   -9.9115    0.0000 C   0  0  0  0  0  0           0  0  0
    2.1668   -8.6787    0.0000 C   0  0  0  0  0  0           0  0  0
    2.8786   -8.2615    0.0000 C   0  0  0  0  0  0           0  0  0
    3.6010   -9.4944    0.0000 C   0  0  0  0  0  0           0  0  0
    2.8732   -7.4365    0.0000 O   0  0  0  0  0  0           0  0  0
    4.3181   -9.9023    0.0000 O   0  0  0  0  0  0           0  0  0
    0.0234   -8.2785    0.0000 C   0  0  0  0  0  0           0  0  0
   -1.4055   -8.2852    0.0000 C   0  0  0  0  0  0           0  0  0
    0.0196   -7.4535    0.0000 C   0  0  0  0  0  0           0  0  0
    0.0385  -12.4058    0.0000 C   0  0  0  0  0  0           0  0  0
    1.4674  -12.4023    0.0000 C   0  0  0  0  0  0           0  0  0
    0.0405  -13.2308    0.0000 C   0  0  0  0  0  0           0  0  0
   -2.1180   -8.7010    0.0000 C   0  0  0  0  0  0           0  0  0
   -2.8328   -8.2901    0.0000 C   0  0  0  0  0  0           0  0  0
   -3.5449   -8.7053    0.0000 C   0  0  0  0  0  0           0  0  0
   -3.5415   -9.5312    0.0000 C   0  0  0  0  0  0           0  0  0
   -2.8200   -9.9401    0.0000 C   0  0  0  0  0  0           0  0  0
   -2.1109   -9.5226    0.0000 C   0  0  0  0  0  0           0  0  0
    0.7344   -7.0410    0.0000 C   0  0  0  0  0  0           0  0  0
    0.7308   -6.2167    0.0000 C   0  0  0  0  0  0           0  0  0
    0.0140   -5.8067    0.0000 C   0  0  0  0  0  0           0  0  0
   -0.7009   -6.2271    0.0000 C   0  0  0  0  0  0           0  0  0
   -0.6940   -7.0499    0.0000 C   0  0  0  0  0  0           0  0  0
    2.1809  -11.9881    0.0000 C   0  0  0  0  0  0           0  0  0
    2.8942  -12.4000    0.0000 C   0  0  0  0  0  0           0  0  0
    3.6073  -11.9865    0.0000 C   0  0  0  0  0  0           0  0  0
    3.6057  -11.1606    0.0000 C   0  0  0  0  0  0           0  0  0
    2.8852  -10.7500    0.0000 C   0  0  0  0  0  0           0  0  0
    2.1752  -11.1659    0.0000 C   0  0  0  0  0  0           0  0  0
   -0.6725  -13.6423    0.0000 C   0  0  0  0  0  0           0  0  0
   -0.6709  -14.4666    0.0000 C   0  0  0  0  0  0           0  0  0
    0.0451  -14.8782    0.0000 C   0  0  0  0  0  0           0  0  0
    0.7610  -14.4595    0.0000 C   0  0  0  0  0  0           0  0  0
    0.7558  -13.6366    0.0000 C   0  0  0  0  0  0           0  0  0
  4  5  1  0     0  0
  1 27  1  0     0  0
 13 14  1  0     0  0
  1 28  1  0     0  0
  7  8  1  0     0  0
 27 29  1  0     0  0
 14 15  1  0     0  0
  2 30  1  0     0  0
  5  8  2  0     0  0
  2 31  1  0     0  0
 15 16  1  0     0  0
 30 32  1  0     0  0
  8  9  1  0     0  0
 28 33  1  0     0  0
 13 17  1  0     0  0
 33 34  2  0     0  0
  3  4  2  0     0  0
 34 35  1  0     0  0
 17 18  1  0     0  0
 35 36  2  0     0  0
  9 10  2  0     0  0
 36 37  1  0     0  0
 18 19  1  0     0  0
 37 38  2  0     0  0
 38 33  1  0     0  0
  7  6  2  0     0  0
 29 39  2  0     0  0
 11 20  1  0     0  0
 39 40  1  0     0  0
 10 11  1  0     0  0
 40 41  2  0     0  0
 20 21  1  0     0  0
 41 42  1  0     0  0
  6  3  1  0     0  0
 42 43  2  0     0  0
 43 29  1  0     0  0
 20 22  1  0     0  0
 31 44  1  0     0  0
 11 12  2  0     0  0
 44 45  2  0     0  0
 22 23  1  0     0  0
 45 46  1  0     0  0
 12  7  1  0     0  0
 46 47  2  0     0  0
 21 24  1  0     0  0
 47 48  1  0     0  0
 48 49  2  0     0  0
 49 44  1  0     0  0
 23 25  1  0     0  0
 32 50  2  0     0  0
  4 13  1  0     0  0
 50 51  1  0     0  0
 24 26  1  0     0  0
 51 52  2  0     0  0
  6  1  1  0     0  0
 52 53  1  0     0  0
  9  2  1  0     0  0
 53 54  2  0     0  0
 54 32  1  0     0  0
M  END
>  <MOLREGNO>
387428

>  <CHEMBLID>
CHEMBL387999

>  <SYNONYMS>


>  <MAX_PHASE>
0

>  <MOLWEIGHT>
728.9

>  <ALOGP>
4.42

>  <PSA>
145.44

>  <HBA>
12

>  <HBD>
4

>  <RO5>
2

>  <RTB>
20

>  <RO3>
N

>  <ACD_MOST_APKA>
13.5

>  <ACD_MOST_BPKA>
6.14

>  <ACD_LOGP>
6.6

>  <ACD_LOGD>
6.59

>  <AROMATIC_RINGS>
6

>  <HEAVY_ATOMS>
54

>  <QED_WEIGHTED>
.09

>  <HBA_LIPINSKI>
12

>  <HBD_LIPINSKI>
4

>  <NUM_LIPINSKI_RO5_VIOLATIONS>
2

>  <MW_MONOISOTOPIC>
728.3799

>  <MOLECULAR_SPECIES>
NEUTRAL

>  <FULL_MOLFORMULA>
C42H48N8O4

$$$$

  SciTegic10041313212D

 56 60  0  0  0  0            999 V2000
   -2.9549   -1.7107    0.0000 C   0  0
   -2.5902   -2.4507    0.0000 C   0  0
   -3.0487   -3.1365    0.0000 C   0  0
   -3.8733   -3.1687    0.0000 N   0  0
   -4.0975   -3.9627    0.0000 C   0  0
   -3.4116   -4.4212    0.0000 C   0  0
   -2.7636   -3.9106    0.0000 C   0  0
   -2.5684   -0.9766    0.0000 C   0  0
   -3.1440   -0.3855    0.0000 C   0  0
   -3.8840   -0.7503    0.0000 C   0  0
   -3.7657   -1.5667    0.0000 N   0  0
   -4.8715   -4.2480    0.0000 C   0  0
   -5.6172   -3.8969    0.0000 C   0  0
   -5.7726   -3.0890    0.0000 N   0  0
   -6.5922   -2.9858    0.0000 C   0  0
   -6.9495   -3.7325    0.0000 C   0  0
   -6.3429   -4.2969    0.0000 C   0  0
   -6.9945   -2.2630    0.0000 C   0  0
   -6.5634   -1.5572    0.0000 C   0  0
   -5.7369   -1.4857    0.0000 N   0  0
   -5.5488   -0.6824    0.0000 C   0  0
   -6.2620   -0.2553    0.0000 C   0  0
   -6.8794   -0.7946    0.0000 C   0  0
   -4.7883   -0.3625    0.0000 C   0  0
   -1.9697   -4.1348    0.0000 C   0  0
   -3.3793   -5.2456    0.0000 C   0  0
   -2.6493   -5.6299    0.0000 C   0  0
   -2.6171   -6.4542    0.0000 C   0  0
   -1.8870   -6.8385    0.0000 N   0  0
   -3.3149   -6.8943    0.0000 O   0  0
   -1.8548   -7.6629    0.0000 C   0  0
   -1.1247   -8.0472    0.0000 C   0  0
   -1.0925   -8.8715    0.0000 O   0  0
   -1.7519   -0.8585    0.0000 C   0  0
   -1.2414   -1.5065    0.0000 O   0  0
   -1.4460   -0.0923    0.0000 C   0  0
   -0.4249   -1.3884    0.0000 C   0  0
    0.0857   -2.0364    0.0000 C   0  0
    0.9022   -1.9182    0.0000 C   0  0
   -3.0040    0.4275    0.0000 C   0  0
   -6.4490   -5.1156    0.0000 C   0  0
   -7.2056   -5.4364    0.0000 C   0  0
   -7.3118   -6.2551    0.0000 C   0  0
   -8.0684   -6.5759    0.0000 N   0  0
   -6.6530   -6.7529    0.0000 O   0  0
   -8.1746   -7.3946    0.0000 C   0  0
   -8.9312   -7.7154    0.0000 C   0  0
   -9.0373   -8.5341    0.0000 O   0  0
   -7.7559   -3.8874    0.0000 C   0  0
   -7.6849   -0.6050    0.0000 C   0  0
   -6.3260    0.5668    0.0000 C   0  0
   -5.6468    1.0379    0.0000 C   0  0
   -7.0710    0.9178    0.0000 O   0  0
   -7.1433    1.7398    0.0000 C   0  0
   -7.8883    2.0908    0.0000 C   0  0
   -7.9606    2.9129    0.0000 C   0  0
  6 26  1  0
  5  6  1  0
 26 27  1  0
 12 13  1  0
 27 28  1  0
 13 14  2  0
 28 29  1  0
  6  7  2  0
 28 30  2  0
  7  3  1  0
 29 31  1  0
  1  8  1  0
 31 32  1  0
  1  2  1  0
 32 33  1  0
 14 15  1  0
  8 34  1  0
 15 16  1  0
 34 35  1  0
 16 17  2  0
 34 36  1  0
 17 13  1  0
 35 37  1  0
 37 38  1  0
 15 18  2  0
 38 39  1  0
  2  3  2  0
  9 40  1  0
 18 19  1  0
 17 41  1  0
 19 20  1  0
 41 42  1  0
  3  4  1  0
 42 43  1  0
  8  9  2  0
 43 44  1  0
  9 10  1  0
 43 45  2  0
 10 11  1  0
 44 46  1  0
 20 21  1  0
 46 47  1  0
 21 22  2  0
 47 48  1  0
 22 23  1  0
 16 49  1  0
 23 19  2  0
 23 50  1  0
 11  1  2  0
 22 51  1  0
 21 24  1  0
 51 52  1  0
 24 10  2  0
 51 53  1  0
  4  5  1  0
 53 54  1  0
  7 25  1  0
 54 55  1  0
  5 12  2  0
 55 56  1  0
M  END
>  <MOLREGNO>
436554

>  <CHEMBLID>
CHEMBL269813

>  <SYNONYMS>
Hematoporphyrin Propylether Ethanolamide

>  <MAX_PHASE>
0

>  <MOLWEIGHT>
769

>  <ALOGP>
7.16

>  <PSA>
174.48

>  <HBA>
8

>  <HBD>
6

>  <RO5>
3

>  <RTB>
18

>  <RO3>
N

>  <ACD_MOST_APKA>


>  <ACD_MOST_BPKA>


>  <ACD_LOGP>
4.98

>  <ACD_LOGD>


>  <AROMATIC_RINGS>
5

>  <HEAVY_ATOMS>
56

>  <QED_WEIGHTED>
.05

>  <HBA_LIPINSKI>
12

>  <HBD_LIPINSKI>
6

>  <NUM_LIPINSKI_RO5_VIOLATIONS>
4

>  <MW_MONOISOTOPIC>
768.4574

>  <MOLECULAR_SPECIES>


>  <FULL_MOLFORMULA>
C44H60N6O6

$$$$

          02060813462D 1   1.00000     0.00000     0

 50 53  0     0  0            999 V2000
   -1.5049   -9.5012    0.0000 N   0  0  0  0  0  0           0  0  0
   -1.5062  -10.3288    0.0000 C   0  0  0  0  0  0           0  0  0
   -0.7932  -10.7417    0.0000 N   0  0  0  0  0  0           0  0  0
   -0.7952   -9.0884    0.0000 C   0  0  0  0  0  0           0  0  0
   -0.0770   -9.4972    0.0000 C   0  0  0  0  0  0           0  0  0
   -0.0760  -10.3246    0.0000 C   0  0  0  0  0  0           0  0  0
    0.6400  -10.7355    0.0000 C   0  0  0  0  0  0           0  0  0
    1.3553  -10.3203    0.0000 N   0  0  0  0  0  0           0  0  0
    1.3502   -9.4898    0.0000 C   0  0  0  0  0  0           0  0  0
    0.6337   -9.0826    0.0000 N   0  0  0  0  0  0           0  0  0
   -0.7990   -8.2634    0.0000 N   0  0  3  0  0  0           0  0  0
   -2.2212  -10.7403    0.0000 N   0  0  3  0  0  0           0  0  0
   -2.9351  -10.3268    0.0000 C   0  0  0  0  0  0           0  0  0
   -3.6501  -10.7382    0.0000 C   0  0  0  0  0  0           0  0  0
   -4.3640  -10.3247    0.0000 O   0  0  0  0  0  0           0  0  0
   -2.2224  -11.5653    0.0000 C   0  0  0  0  0  0           0  0  0
   -2.9375  -11.9768    0.0000 C   0  0  0  0  0  0           0  0  0
   -2.9386  -12.8018    0.0000 O   0  0  0  0  0  0           0  0  0
    0.6420  -11.5605    0.0000 N   0  0  3  0  0  0           0  0  0
    2.0621   -9.0727    0.0000 N   0  0  3  0  0  0           0  0  0
    2.7791   -9.4805    0.0000 C   0  0  0  0  0  0           0  0  0
    2.0568   -8.2477    0.0000 C   0  0  0  0  0  0           0  0  0
    2.7686   -7.8307    0.0000 C   0  0  0  0  0  0           0  0  0
    3.4910   -9.0635    0.0000 C   0  0  0  0  0  0           0  0  0
    2.7632   -7.0057    0.0000 O   0  0  0  0  0  0           0  0  0
    4.2080   -9.4714    0.0000 O   0  0  0  0  0  0           0  0  0
   -0.0869   -7.8535    0.0000 C   0  0  0  0  0  0           0  0  0
   -0.0887   -7.0322    0.0000 C   0  0  0  0  0  0           0  0  0
   -0.8033   -6.6191    0.0000 N   0  0  3  0  0  0           0  0  0
   -1.5177   -7.0337    0.0000 C   0  0  0  0  0  0           0  0  0
   -1.5174   -7.8614    0.0000 C   0  0  0  0  0  0           0  0  0
   -0.0723  -11.9726    0.0000 C   0  0  0  0  0  0           0  0  0
   -0.0723  -12.7940    0.0000 C   0  0  0  0  0  0           0  0  0
    0.6414  -13.2087    0.0000 N   0  0  3  0  0  0           0  0  0
    1.3566  -12.7956    0.0000 C   0  0  0  0  0  0           0  0  0
    1.3584  -11.9680    0.0000 C   0  0  0  0  0  0           0  0  0
   -0.8040   -5.7941    0.0000 C   0  0  0  0  0  0           0  0  0
   -0.0899   -5.3810    0.0000 O   0  0  0  0  0  0           0  0  0
   -1.5189   -5.3823    0.0000 O   0  0  0  0  0  0           0  0  0
    0.6249   -5.7928    0.0000 C   0  0  3  0  0  0           0  0  0
    1.3337   -6.2012    0.0000 C   0  0  0  0  0  0           0  0  0
    0.2131   -6.5077    0.0000 C   0  0  0  0  0  0           0  0  0
    1.0428   -5.0814    0.0000 C   0  0  0  0  0  0           0  0  0
    0.6402  -14.0337    0.0000 C   0  0  0  0  0  0           0  0  0
   -0.0748  -14.4452    0.0000 O   0  0  0  0  0  0           0  0  0
    1.3542  -14.4471    0.0000 O   0  0  0  0  0  0           0  0  0
   -0.7887  -14.0317    0.0000 C   0  0  3  0  0  0           0  0  0
   -1.5079  -13.6171    0.0000 C   0  0  0  0  0  0           0  0  0
   -0.3760  -13.3173    0.0000 C   0  0  0  0  0  0           0  0  0
   -1.1969  -14.7485    0.0000 C   0  0  0  0  0  0           0  0  0
  2  3  1  0     0  0
 23 25  1  0     0  0
  2 12  1  0     0  0
 24 26  1  0     0  0
 11 27  1  0     0  0
  5  6  1  0     0  0
 12 13  1  0     0  0
  3  6  2  0     0  0
 13 14  1  0     0  0
  6  7  1  0     0  0
 11 31  1  0     0  0
 27 28  1  0     0  0
 28 29  1  0     0  0
 29 30  1  0     0  0
 30 31  1  0     0  0
 19 32  1  0     0  0
 14 15  1  0     0  0
  1  2  2  0     0  0
 12 16  1  0     0  0
  7  8  2  0     0  0
 16 17  1  0     0  0
 19 36  1  0     0  0
 32 33  1  0     0  0
 33 34  1  0     0  0
 34 35  1  0     0  0
 35 36  1  0     0  0
  5  4  2  0     0  0
 29 37  1  0     0  0
 17 18  1  0     0  0
 37 38  1  0     0  0
  8  9  1  0     0  0
 37 39  2  0     0  0
  7 19  1  0     0  0
 38 40  1  0     0  0
  4  1  1  0     0  0
 40 41  1  0     0  0
  9 20  1  0     0  0
 40 42  1  0     0  0
  9 10  2  0     0  0
 40 43  1  0     0  0
 20 21  1  0     0  0
 34 44  1  0     0  0
 10  5  1  0     0  0
 44 45  1  0     0  0
 20 22  1  0     0  0
 44 46  2  0     0  0
 45 47  1  0     0  0
 22 23  1  0     0  0
 47 48  1  0     0  0
  4 11  1  0     0  0
 47 49  1  0     0  0
 21 24  1  0     0  0
 47 50  1  0     0  0
M  END
>  <MOLREGNO>
387372

>  <CHEMBLID>
CHEMBL243577

>  <SYNONYMS>


>  <MAX_PHASE>
0

>  <MOLWEIGHT>
706.85

>  <ALOGP>
.12

>  <PSA>
204.52

>  <HBA>
16

>  <HBD>
4

>  <RO5>
2

>  <RTB>
12

>  <RO3>
N

>  <ACD_MOST_APKA>
13.54

>  <ACD_MOST_BPKA>
6.29

>  <ACD_LOGP>
2.85

>  <ACD_LOGD>
2.84

>  <AROMATIC_RINGS>
2

>  <HEAVY_ATOMS>
50

>  <QED_WEIGHTED>
.23

>  <HBA_LIPINSKI>
18

>  <HBD_LIPINSKI>
4

>  <NUM_LIPINSKI_RO5_VIOLATIONS>
2

>  <MW_MONOISOTOPIC>
706.4126

>  <MOLECULAR_SPECIES>
NEUTRAL

>  <FULL_MOLFORMULA>
C32H54N10O8

$$$$

  SciTegic12011114592D

 48 51  0  0  0  0            999 V2000
   -5.2223  -22.6125    0.0000 C   0  0
   -5.2234  -23.4398    0.0000 C   0  0
   -4.5086  -23.8527    0.0000 C   0  0
   -4.5104  -22.1997    0.0000 C   0  0
   -3.7950  -22.6088    0.0000 C   0  0
   -3.7943  -23.4357    0.0000 C   0  0
   -3.0790  -23.8466    0.0000 N   0  0
   -2.3639  -23.4319    0.0000 C   0  0
   -2.3687  -22.6019    0.0000 C   0  0
   -3.0846  -22.1947    0.0000 C   0  0
   -4.5067  -24.6777    0.0000 C   0  0
   -5.2202  -25.0919    0.0000 F   0  0
   -3.7913  -25.0885    0.0000 F   0  0
   -4.5125  -25.5000    0.0000 F   0  0
   -1.6479  -23.8416    0.0000 C   0  0
   -1.6446  -24.6666    0.0000 F   0  0
   -0.9350  -23.4263    0.0000 F   0  0
   -0.9375  -24.2500    0.0000 F   0  0
   -3.0890  -21.3697    0.0000 C   0  0
   -2.3767  -20.9534    0.0000 C   0  0
   -3.8056  -20.9610    0.0000 O   0  0
   -1.6600  -21.3621    0.0000 N   0  0
   -0.9478  -20.9458    0.0000 C   0  0
   -0.2311  -21.3545    0.0000 C   0  0
    0.4812  -20.9382    0.0000 N   0  0
    1.1978  -21.3470    0.0000 C   0  0
    0.4768  -20.1133    0.0000 C   0  0
    1.9101  -20.9307    0.0000 C   0  0
    2.6267  -21.3394    0.0000 C   0  0
    1.9057  -20.1057    0.0000 O   0  0
    4.0557  -22.1559    0.0000 N   0  0
    4.0486  -21.3266    0.0000 C   0  0
    3.3322  -20.9217    0.0000 C   0  0
    3.3424  -22.5722    0.0000 C   0  0
    2.6291  -22.1650    0.0000 C   0  0
    1.9220  -22.5790    0.0000 C   0  0
    1.9268  -23.4001    0.0000 C   0  0
    2.6448  -23.8054    0.0000 C   0  0
    3.3490  -23.3890    0.0000 C   0  0
   -1.6557  -22.1871    0.0000 C   0  0
    4.7594  -20.9078    0.0000 C   0  0
    5.4775  -21.3140    0.0000 F   0  0
    4.7521  -20.0829    0.0000 F   0  0
    5.4708  -20.4875    0.0000 F   0  0
    4.0673  -23.7949    0.0000 C   0  0
    4.0749  -24.6199    0.0000 F   0  0
    4.7779  -23.3758    0.0000 F   0  0
    4.7792  -24.2042    0.0000 F   0  0
  3 11  1  0
 23 24  1  0
  2  3  1  0
 24 25  1  0
 11 12  1  0
 25 26  1  0
  5  6  1  0
 25 27  1  0
 11 13  1  0
 26 28  1  0
  3  6  2  0
 28 29  1  0
 11 14  1  0
 28 30  1  0
 29 35  2  0
  6  7  1  0
 34 31  2  0
  8 15  1  0
 31 32  1  0
  1  2  2  0
 32 33  2  0
 33 29  1  0
 15 16  1  0
  7  8  2  0
 34 35  1  0
 15 17  1  0
 35 36  1  0
  5  4  2  0
 36 37  2  0
 15 18  1  0
 37 38  1  0
  8  9  1  0
 38 39  2  0
 39 34  1  0
 10 19  1  0
 22 40  1  0
  4  1  1  0
 32 41  1  0
 19 20  1  0
 41 42  1  0
  9 10  2  0
 41 43  1  0
 19 21  1  0
 41 44  1  0
 10  5  1  0
 39 45  1  0
 20 22  1  0
 45 46  1  0
 45 47  1  0
 22 23  1  0
 45 48  1  0
M  END
>  <MOLREGNO>
1172271

>  <CHEMBLID>
CHEMBL1822193

>  <SYNONYMS>
WR-621213

>  <MAX_PHASE>
0

>  <MOLWEIGHT>
702.54

>  <ALOGP>
7.49

>  <PSA>
72.72

>  <HBA>
6

>  <HBD>
2

>  <RO5>
2

>  <RTB>
9

>  <RO3>
N

>  <ACD_MOST_APKA>
12.17

>  <ACD_MOST_BPKA>
7.25

>  <ACD_LOGP>
2.63

>  <ACD_LOGD>
2.44

>  <AROMATIC_RINGS>
4

>  <HEAVY_ATOMS>
48

>  <QED_WEIGHTED>
.18

>  <HBA_LIPINSKI>
6

>  <HBD_LIPINSKI>
2

>  <NUM_LIPINSKI_RO5_VIOLATIONS>
2

>  <MW_MONOISOTOPIC>
702.1864

>  <MOLECULAR_SPECIES>
NEUTRAL

>  <FULL_MOLFORMULA>
C30H26F12N4O2

$$$$

  SciTegic12011114592D

 48 51  0  0  0  0            999 V2000
   -2.9740   -0.4486    0.0000 C   0  0
   -3.8015   -0.4558    0.0000 C   0  0
   -4.2071   -1.1748    0.0000 C   0  0
   -3.7866   -1.8871    0.0000 C   0  0
   -2.5541   -1.1564    0.0000 C   0  0
   -2.9556   -1.8732    0.0000 C   0  0
   -2.5357   -2.5772    0.0000 N   0  0
   -1.7143   -2.5656    0.0000 C   0  0
   -1.3148   -1.8440    0.0000 C   0  0
   -1.7371   -1.1431    0.0000 C   0  0
   -4.1896   -2.6070    0.0000 C   0  0
   -5.0147   -2.6179    0.0000 F   0  0
   -3.7677   -3.3161    0.0000 F   0  0
   -4.6087   -3.3170    0.0000 F   0  0
   -1.2905   -3.2735    0.0000 C   0  0
   -1.6915   -3.9945    0.0000 F   0  0
   -0.4655   -3.2602    0.0000 F   0  0
   -0.8834   -3.9836    0.0000 F   0  0
   -1.3371   -0.4214    0.0000 C   0  0
   -0.5121   -0.4070    0.0000 C   0  0
   -1.7620    0.2858    0.0000 O   0  0
   -0.1121    0.3145    0.0000 N   0  0
    0.7129    0.3289    0.0000 C   0  0
   -0.5370    1.0218    0.0000 C   0  0
    1.1377   -0.3783    0.0000 C   0  0
    1.9626   -0.3639    0.0000 C   0  0
    0.7378   -1.0999    0.0000 O   0  0
   -0.1370    1.7433    0.0000 C   0  0
   -0.5619    2.4506    0.0000 N   0  0
   -0.1619    3.1722    0.0000 C   0  0
    3.6101   -0.3361    0.0000 N   0  0
    3.1806    0.3733    0.0000 C   0  0
    2.3579    0.3558    0.0000 C   0  0
    3.2092   -1.0583    0.0000 C   0  0
    2.3882   -1.0682    0.0000 C   0  0
    1.9881   -1.7830    0.0000 C   0  0
    2.4078   -2.4884    0.0000 C   0  0
    3.2318   -2.4745    0.0000 C   0  0
    3.6283   -1.7591    0.0000 C   0  0
    3.5781    1.0964    0.0000 C   0  0
    4.4030    1.1137    0.0000 F   0  0
    3.1507    1.8021    0.0000 F   0  0
    3.9836    1.8168    0.0000 F   0  0
    4.4532   -1.7456    0.0000 C   0  0
    4.8775   -2.4532    0.0000 F   0  0
    4.8540   -1.0244    0.0000 F   0  0
    5.2754   -1.7418    0.0000 F   0  0
   -1.3869    2.4362    0.0000 C   0  0
  4 11  1  0
 22 24  1  0
  2  3  2  0
 23 25  1  0
 11 12  1  0
 25 26  1  0
  5  6  1  0
 25 27  1  0
 11 13  1  0
 24 28  1  0
  1  2  1  0
 28 29  1  0
 11 14  1  0
 29 30  1  0
 26 35  2  0
  6  7  1  0
 34 31  2  0
  8 15  1  0
 31 32  1  0
  3  4  1  0
 32 33  2  0
 33 26  1  0
 15 16  1  0
  7  8  2  0
 34 35  1  0
 15 17  1  0
 35 36  1  0
  4  6  2  0
 36 37  2  0
 15 18  1  0
 37 38  1  0
  8  9  1  0
 38 39  2  0
 39 34  1  0
 10 19  1  0
 32 40  1  0
  5  1  2  0
 40 41  1  0
 19 20  1  0
 40 42  1  0
  9 10  2  0
 40 43  1  0
 19 21  1  0
 39 44  1  0
 10  5  1  0
 44 45  1  0
 20 22  1  0
 44 46  1  0
 44 47  1  0
 22 23  1  0
 29 48  1  0
M  END
>  <MOLREGNO>
1172273

>  <CHEMBLID>
CHEMBL1822195

>  <SYNONYMS>
WR-621212

>  <MAX_PHASE>
0

>  <MOLWEIGHT>
702.54

>  <ALOGP>
7.49

>  <PSA>
72.72

>  <HBA>
6

>  <HBD>
2

>  <RO5>
2

>  <RTB>
9

>  <RO3>
N

>  <ACD_MOST_APKA>
12.02

>  <ACD_MOST_BPKA>
8.37

>  <ACD_LOGP>
2.63

>  <ACD_LOGD>
1.64

>  <AROMATIC_RINGS>
4

>  <HEAVY_ATOMS>
48

>  <QED_WEIGHTED>
.18

>  <HBA_LIPINSKI>
6

>  <HBD_LIPINSKI>
2

>  <NUM_LIPINSKI_RO5_VIOLATIONS>
2

>  <MW_MONOISOTOPIC>
702.1864

>  <MOLECULAR_SPECIES>
NEUTRAL

>  <FULL_MOLFORMULA>
C30H26F12N4O2

$$$$

  SciTegic11141214502D

 50 50  0  0  0  0            999 V2000
   -7.4545    0.2946    0.0000 O   0  0
   -6.7400    0.7071    0.0000 C   0  0
   -6.0255    0.2946    0.0000 C   0  0  1  0  0  0
   -5.3111    0.7071    0.0000 N   0  0
   -4.5966    0.2946    0.0000 C   0  0
   -3.8821    0.7071    0.0000 C   0  0  1  0  0  0
   -3.1676    0.2946    0.0000 N   0  0
   -2.4532    0.7071    0.0000 C   0  0
   -1.7387    0.2946    0.0000 C   0  0  1  0  0  0
   -1.0242    0.7071    0.0000 C   0  0
   -0.3098    0.2946    0.0000 C   0  0
    0.4047    0.7071    0.0000 C   0  0  1  0  0  0
    1.1192    0.2946    0.0000 N   0  0
    1.8337    0.7071    0.0000 C   0  0
    2.5481    0.2946    0.0000 C   0  0
    3.2626    0.7071    0.0000 N   0  0
    3.9771    0.2946    0.0000 C   0  0
    4.6915    0.7071    0.0000 C   0  0
    5.4060    0.2946    0.0000 C   0  0  2  0  0  0
    6.1205    0.7071    0.0000 C   0  0  1  0  0  0
    6.8350    0.2946    0.0000 C   0  0
    7.5494    0.7071    0.0000 C   0  0
    8.2639    0.2946    0.0000 C   0  0
    8.9784    0.7071    0.0000 C   0  0
    9.6928    0.2946    0.0000 C   0  0
   10.4073    0.7071    0.0000 C   0  0
   -8.1689    0.7071    0.0000 C   0  0
   -6.7400    1.5321    0.0000 O   0  0
   -6.0255   -0.5304    0.0000 C   0  0
   -6.7400   -0.9429    0.0000 C   0  0
   -4.5966   -0.5304    0.0000 O   0  0
   -3.8821    1.5321    0.0000 C   0  0
   -2.4532    1.5321    0.0000 O   0  0
   -1.7387   -0.5304    0.0000 C   0  0
   -2.4532   -0.9429    0.0000 C   0  0
   -2.4532   -1.7679    0.0000 C   0  0
   -3.1676   -0.5304    0.0000 C   0  0
   -0.3098   -0.5304    0.0000 O   0  0
    0.4047    1.5321    0.0000 C   0  0
   -0.3098    1.9446    0.0000 C   0  0
    1.1192    1.9446    0.0000 C   0  0
    1.8337    1.5321    0.0000 O   0  0
    3.9771   -0.5304    0.0000 O   0  0
    5.4060   -0.5304    0.0000 O   0  0
    6.1205    1.5321    0.0000 C   0  0
   -7.4545   -0.5303    0.0000 C   0  0
   -8.1689   -0.9428    0.0000 C   0  0
   -8.1689   -1.7679    0.0000 C   0  0
   -7.4544   -2.1804    0.0000 C   0  0
   -6.7400   -1.7679    0.0000 C   0  0
  1  2  1  0
  2  3  1  0
  3  4  1  0
  4  5  1  0
  5  6  1  0
  6  7  1  0
  7  8  1  0
  8  9  1  0
  9 10  1  0
 10 11  1  0
 11 12  1  0
 12 13  1  0
 13 14  1  0
 14 15  1  0
 15 16  1  0
 16 17  1  0
 17 18  1  0
 18 19  1  0
 19 20  1  0
 20 21  1  0
 21 22  1  0
 22 23  1  0
 23 24  1  0
 24 25  1  0
 25 26  1  0
  1 27  1  0
  2 28  2  0
  3 29  1  1
 29 30  1  0
  5 31  2  0
  6 32  1  6
  8 33  2  0
  9 34  1  1
 34 35  1  0
 35 36  1  0
 35 37  1  0
 11 38  2  0
 12 39  1  6
 39 40  1  0
 39 41  1  0
 14 42  2  0
 17 43  2  0
 19 44  1  6
 20 45  1  6
 30 46  1  0
 30 50  2  0
 46 47  2  0
 47 48  1  0
 48 49  2  0
 49 50  1  0
M  END
>  <MOLREGNO>
1368465

>  <CHEMBLID>
CHEMBL2094006

>  <SYNONYMS>


>  <MAX_PHASE>
0

>  <MOLWEIGHT>
702.93

>  <ALOGP>
3.63

>  <PSA>
180

>  <HBA>
8

>  <HBD>
5

>  <RO5>
1

>  <RTB>
24

>  <RO3>
N

>  <ACD_MOST_APKA>
13.24

>  <ACD_MOST_BPKA>


>  <ACD_LOGP>
5.05

>  <ACD_LOGD>
5.05

>  <AROMATIC_RINGS>
1

>  <HEAVY_ATOMS>
50

>  <QED_WEIGHTED>
.08

>  <HBA_LIPINSKI>
12

>  <HBD_LIPINSKI>
5

>  <NUM_LIPINSKI_RO5_VIOLATIONS>
2

>  <MW_MONOISOTOPIC>
702.4568

>  <MOLECULAR_SPECIES>
NEUTRAL

>  <FULL_MOLFORMULA>
C38H62N4O8

$$$$

  SciTegic09261414482D

 58 60  0  0  0  0            999 V2000
   22.6809  -25.6587    0.0000 C   0  0
   21.9653  -26.0792    0.0000 C   0  0
   21.9667  -26.9145    0.0000 C   0  0
   21.2592  -25.6587    0.0000 N   0  0
   23.3902  -26.0895    0.0000 C   0  0
   20.5450  -26.0792    0.0000 C   0  0
   22.6809  -27.3215    0.0000 C   0  0
   22.6809  -24.8337    0.0000 C   0  0
   23.3902  -26.9145    0.0000 C   0  0
   19.8287  -25.6764    0.0000 C   0  0
   21.2552  -27.3215    0.0000 O   0  0
   19.8287  -24.8465    0.0000 C   0  0
   20.5450  -26.9145    0.0000 C   0  0
   23.4005  -24.4218    0.0000 N   0  0
   19.1091  -24.4355    0.0000 N   0  0
   19.1091  -26.0895    0.0000 C   0  0
   21.9579  -24.4218    0.0000 O   0  0
   19.8247  -27.3222    0.0000 C   0  0
   24.1066  -27.3222    0.0000 O   0  0
   20.5450  -24.4355    0.0000 O   0  0
   24.1147  -25.6715    0.0000 N   0  0
   19.1091  -26.9145    0.0000 C   0  0
   22.6809  -28.1472    0.0000 C   0  0
   19.8287  -28.1560    0.0000 C   0  0
   23.4001  -23.5998    0.0000 C   0  0  2  0  0  0
   24.1206  -23.1934    0.0000 C   0  0
   22.6940  -23.1863    0.0000 C   0  0  2  0  0  0
   22.6999  -22.3643    0.0000 O   0  0
   21.9798  -23.5927    0.0000 C   0  0
   24.8309  -23.6068    0.0000 O   0  0
   24.1202  -22.3713    0.0000 N   0  0
   24.8344  -21.9628    0.0000 C   0  0  2  0  0  0
   24.8403  -21.1408    0.0000 C   0  0
   25.5447  -22.3784    0.0000 C   0  0
   25.5450  -23.2046    0.0000 O   0  0
   26.2651  -21.9698    0.0000 N   0  0
   25.5544  -20.7344    0.0000 C   0  0
   24.1300  -20.7273    0.0000 C   0  0
   19.1135  -23.6135    0.0000 C   0  0  2  0  0  0
   18.3971  -23.2041    0.0000 C   0  0
   19.8217  -23.2008    0.0000 C   0  0  1  0  0  0
   20.5338  -23.6102    0.0000 C   0  0
   19.8198  -22.3788    0.0000 O   0  0
   18.3953  -22.3779    0.0000 N   0  0
   17.6827  -23.6167    0.0000 O   0  0
   17.6831  -21.9685    0.0000 C   0  0  2  0  0  0
   17.6812  -21.1465    0.0000 C   0  0
   16.9707  -22.3812    0.0000 C   0  0
   16.2585  -21.9655    0.0000 N   0  0
   16.9705  -23.2032    0.0000 O   0  0
   18.3956  -20.7338    0.0000 C   0  0
   16.9711  -20.7371    0.0000 C   0  0
   26.9730  -22.3867    0.0000 C   0  0
   15.5466  -22.3794    0.0000 C   0  0
   27.6900  -21.9809    0.0000 C   0  0
   28.3999  -22.3990    0.0000 O   0  0
   14.8318  -21.9696    0.0000 C   0  0
   14.1196  -22.3837    0.0000 O   0  0
  2  1  1  0
  3  2  1  0
  4  2  2  0
  5  1  2  0
  6  4  1  0
  7  9  1  0
  8  1  1  0
  9  5  1  0
 10  6  1  0
 11  3  1  0
 12 10  1  0
 13  6  2  0
 14  8  1  0
 15 12  1  0
 16 10  2  0
 17  8  2  0
 18 13  1  0
 19  9  2  0
 20 12  2  0
 21  5  1  0
 22 18  2  0
 23  7  1  0
 24 18  1  0
  7  3  2  0
 13 11  1  0
 22 16  1  0
 14 25  1  0
 25 26  1  1
 25 27  1  0
 27 28  1  1
 27 29  1  0
 26 30  2  0
 26 31  1  0
 31 32  1  0
 32 33  1  6
 32 34  1  0
 34 35  2  0
 34 36  1  0
 33 37  1  0
 33 38  1  0
 15 39  1  0
 39 40  1  6
 39 41  1  0
 41 42  1  0
 41 43  1  6
 40 44  1  0
 40 45  2  0
 44 46  1  0
 46 47  1  1
 46 48  1  0
 48 49  1  0
 48 50  2  0
 47 51  1  0
 47 52  1  0
 36 53  1  0
 49 54  1  0
 53 55  1  0
 55 56  1  0
 54 57  1  0
 57 58  1  0
M  END
>  <MOLREGNO>
1742394

>  <CHEMBLID>
CHEMBL3249747

>  <SYNONYMS>


>  <MAX_PHASE>
0

>  <MOLWEIGHT>
814.89

>  <ALOGP>
-2.05

>  <PSA>
324.64

>  <HBA>
14

>  <HBD>
11

>  <RO5>
3

>  <RTB>
18

>  <RO3>
N

>  <ACD_MOST_APKA>
10.61

>  <ACD_MOST_BPKA>
.9

>  <ACD_LOGP>
1.27

>  <ACD_LOGD>
1.27

>  <AROMATIC_RINGS>
1

>  <HEAVY_ATOMS>
58

>  <QED_WEIGHTED>
.05

>  <HBA_LIPINSKI>
20

>  <HBD_LIPINSKI>
12

>  <NUM_LIPINSKI_RO5_VIOLATIONS>
3

>  <MW_MONOISOTOPIC>
814.3861

>  <MOLECULAR_SPECIES>
NEUTRAL

>  <FULL_MOLFORMULA>
C38H54N8O12

$$$$

  SciTegic12231509382D

 51 57  0  0  0  0            999 V2000
   21.3845  -17.1953    0.0000 C   0  0
   22.0955  -16.7830    0.0000 C   0  0
   22.8100  -17.1917    0.0000 C   0  0
   22.8108  -18.0175    0.0000 C   0  0
   23.5252  -18.4280    0.0000 N   0  0
   24.2393  -18.0137    0.0000 C   0  0
   24.2346  -17.1847    0.0000 C   0  0
   23.5196  -16.7780    0.0000 C   0  0
   24.9509  -18.4188    0.0000 C   0  0
   25.6620  -18.0025    0.0000 F   0  0
   24.9560  -19.2428    0.0000 F   0  0
   25.6598  -18.8267    0.0000 F   0  0
   23.5139  -15.9583    0.0000 C   0  0
   24.2266  -15.5383    0.0000 N   0  0
   24.2193  -14.7156    0.0000 C   0  0
   23.5009  -14.3066    0.0000 C   0  0
   22.7881  -14.7267    0.0000 C   0  0
   22.7938  -15.5556    0.0000 C   0  0
   22.1020  -18.4318    0.0000 C   0  0
   21.3854  -18.0181    0.0000 C   0  0
   20.6729  -18.4294    0.0000 C   0  0
   20.6706  -19.2562    0.0000 C   0  0
   21.3871  -19.6700    0.0000 C   0  0
   22.1060  -19.2569    0.0000 C   0  0
   16.2833   -8.6723    0.0000 C   0  0
   14.8589   -8.6762    0.0000 C   0  0
   16.2786   -7.8475    0.0000 C   0  0
   16.9907   -9.0733    0.0000 C   0  0
   14.1477   -7.4458    0.0000 C   0  0
   13.4418   -8.6768    0.0000 C   0  0
   13.4434  -10.3204    0.0000 C   0  0
   17.6955   -9.4812    0.0000 F   0  0
   17.6977   -8.6611    0.0000 F   0  0
   12.7333   -9.0839    0.0000 C   0  0
   14.1582   -9.9073    0.0000 C   0  0
   12.7310   -9.9066    0.0000 C   0  0
   14.8581   -7.8545    0.0000 C   0  0
   15.5732   -9.0825    0.0000 N   0  0
   16.9958   -9.8932    0.0000 F   0  0
   14.1542   -9.0863    0.0000 C   0  0
   13.4409   -7.8581    0.0000 C   0  0
   15.5677   -7.4408    0.0000 C   0  0
   15.6861   -4.1730    0.0000 C   0  0
   16.4117   -3.7897    0.0000 C   0  0
   15.6506   -4.9945    0.0000 C   0  0
   16.3483   -5.4246    0.0000 C   0  0
   17.1052   -4.2299    0.0000 C   0  0
   17.0751   -5.0476    0.0000 N   0  0
   16.3182   -6.2412    0.0000 C   0  0
   15.5959   -6.6234    0.0000 C   0  0
   14.9037   -6.1890    0.0000 O   0  0
  1 20  2  0
 19  4  2  0
  3  2  2  0
  2  1  1  0
  3  4  1  0
  4  5  1  0
  5  6  2  0
  6  7  1  0
  7  8  2  0
  8  3  1  0
  6  9  1  0
  9 10  1  0
  9 11  1  0
  9 12  1  0
  8 13  1  0
 13 14  1  0
 13 18  1  0
 14 15  1  0
 15 16  1  0
 16 17  1  0
 17 18  1  0
 19 20  1  0
 19 24  1  0
 20 21  1  0
 21 22  2  0
 22 23  1  0
 23 24  2  0
 37 26  1  0
 29 41  1  0
 41 30  2  0
 27 42  2  0
 40 26  2  0
 25 28  1  0
 37 29  2  0
 36 31  1  0
 30 34  1  0
 28 32  1  0
 26 38  1  0
 40 30  1  0
 40 35  1  0
 25 27  1  0
 38 25  2  0
 28 33  1  0
 28 39  1  0
 34 36  2  0
 42 37  1  0
 31 35  2  0
 47 44  1  0
 46 48  1  0
 43 45  1  0
 46 45  1  0
 48 47  1  0
 44 43  1  0
 46 49  1  0
 49 50  1  0
 50 42  1  0
 50 51  1  0
M  END
>  <MOLREGNO>
1730237

>  <CHEMBLID>
CHEMBL3229599

>  <SYNONYMS>


>  <MAX_PHASE>
0

>  <MOLWEIGHT>
704.76

>  <ALOGP>


>  <PSA>


>  <HBA>


>  <HBD>


>  <RO5>


>  <RTB>


>  <RO3>


>  <ACD_MOST_APKA>


>  <ACD_MOST_BPKA>


>  <ACD_LOGP>


>  <ACD_LOGD>


>  <AROMATIC_RINGS>


>  <HEAVY_ATOMS>


>  <QED_WEIGHTED>


>  <HBA_LIPINSKI>


>  <HBD_LIPINSKI>


>  <NUM_LIPINSKI_RO5_VIOLATIONS>


>  <MW_MONOISOTOPIC>
704.295

>  <MOLECULAR_SPECIES>


>  <FULL_MOLFORMULA>
C40H38F6N4O

$$$$

  SciTegic05221516342D

 70 80  0  0  0  0            999 V2000
   10.1027  -10.1264    0.0000 C   0  0
    8.6664  -10.9127    0.0000 C   0  0
   10.0831  -10.9438    0.0000 C   0  0
    9.3640  -11.3403    0.0000 C   0  0
    9.5189  -12.1466    0.0000 O   0  0
   10.3336  -12.2486    0.0000 C   0  0
   10.6822  -11.5052    0.0000 O   0  0
    8.6825  -10.0965    0.0000 C   0  0
    9.4033   -9.7042    0.0000 C   0  0
    9.4239   -8.8884    0.0000 C   0  0  2  0  0  0
    7.9823   -9.6730    0.0000 C   0  0  2  0  0  0
    8.0047   -8.8510    0.0000 C   0  0  2  0  0  0
    8.7225   -8.4581    0.0000 C   0  0  2  0  0  0
    8.5707   -7.6539    0.0000 C   0  0
    7.7590   -7.5498    0.0000 O   0  0
    7.4092   -8.2896    0.0000 C   0  0
   10.1397   -8.5014    0.0000 C   0  0
   10.8368   -8.9300    0.0000 C   0  0
   11.5544   -8.5405    0.0000 C   0  0
   11.5761   -7.7228    0.0000 C   0  0
   10.8742   -7.2960    0.0000 C   0  0
   10.1595   -7.6878    0.0000 C   0  0
    7.2650  -10.0646    0.0000 O   0  0
    9.1312   -7.0593    0.0000 O   0  0
    9.4257   -8.0519    0.0000 H   0  0
    7.2932   -9.2637    0.0000 H   0  0
   12.2936   -7.3317    0.0000 O   0  0
   10.8925   -6.4790    0.0000 O   0  0
   12.2510   -8.9677    0.0000 O   0  0
   11.6092   -6.0864    0.0000 C   0  0
   12.9693   -8.5779    0.0000 C   0  0
    6.5673   -9.6392    0.0000 C   0  0
    5.8500  -10.0309    0.0000 C   0  0
    0.2250  -11.0005    0.0000 C   0  0
    1.6165  -10.1444    0.0000 C   0  0
    0.2060  -10.1804    0.0000 C   0  0
    0.9032   -9.7477    0.0000 C   0  0
    0.7076   -8.9531    0.0000 O   0  0
   -0.1180   -8.8865    0.0000 C   0  0
   -0.4278   -9.6489    0.0000 O   0  0
    1.6407  -10.9604    0.0000 C   0  0
    0.9420  -11.3877    0.0000 C   0  0
    0.9597  -12.2036    0.0000 C   0  0  2  0  0  0
    2.3609  -11.3490    0.0000 C   0  0  2  0  0  0
    2.3790  -12.1711    0.0000 C   0  0  2  0  0  0
    1.6814  -12.5988    0.0000 C   0  0  2  0  0  0
    1.8727  -13.3945    0.0000 C   0  0
    2.6885  -13.4585    0.0000 O   0  0
    3.0014  -12.7024    0.0000 C   0  0
    0.2645  -12.6253    0.0000 C   0  0
   -0.4536  -12.2316    0.0000 C   0  0
   -1.1511  -12.6559    0.0000 C   0  0
   -1.1324  -13.4738    0.0000 C   0  0
   -0.4104  -13.8655    0.0000 C   0  0
    0.2854  -13.4389    0.0000 C   0  0
    3.0580  -10.9225    0.0000 O   0  0
    1.3421  -14.0160    0.0000 O   0  0
    3.7759  -11.3129    0.0000 C   0  0
   -1.8299  -13.8997    0.0000 O   0  0
   -0.3885  -14.6824    0.0000 O   0  0
   -1.0850  -15.1098    0.0000 C   0  0
   -1.8679  -12.2636    0.0000 O   0  0
   -1.8894  -11.4420    0.0000 C   0  0
    0.9832  -13.0165    0.0000 H   0  0
    3.0744  -11.7370    0.0000 H   0  0
    4.4730  -10.8865    0.0000 C   0  0
    5.1889  -11.2793    0.0000 C   0  0
    5.8855  -10.8535    0.0000 C   0  0
    5.1423   -9.6455    0.0000 C   0  0
    4.4486  -10.0736    0.0000 C   0  0
  3  1  1  0
  1  9  2  0
  8  2  2  0
  2  4  1  0
  3  4  2  0
  4  5  1  0
  5  6  1  0
  6  7  1  0
  7  3  1  0
  8  9  1  0
  8 11  1  0
  9 10  1  0
 10 13  1  0
 12 11  1  0
 12 13  1  0
 13 14  1  0
 14 15  1  0
 15 16  1  0
 16 12  1  0
 17 18  2  0
 18 19  1  0
 19 20  2  0
 20 21  1  0
 21 22  2  0
 22 17  1  0
 10 17  1  6
 11 23  1  1
 14 24  2  0
 13 25  1  1
 12 26  1  6
 20 27  1  0
 21 28  1  0
 19 29  1  0
 28 30  1  0
 29 31  1  0
 23 32  1  0
 32 33  1  0
 36 34  1  0
 34 42  2  0
 41 35  2  0
 35 37  1  0
 36 37  2  0
 37 38  1  0
 38 39  1  0
 39 40  1  0
 40 36  1  0
 41 42  1  0
 41 44  1  0
 42 43  1  0
 43 46  1  0
 45 44  1  0
 45 46  1  0
 46 47  1  0
 47 48  1  0
 48 49  1  0
 49 45  1  0
 50 51  2  0
 51 52  1  0
 52 53  2  0
 53 54  1  0
 54 55  2  0
 55 50  1  0
 43 50  1  6
 44 56  1  1
 47 57  2  0
 56 58  1  0
 53 59  1  0
 54 60  1  0
 60 61  1  0
 52 62  1  0
 62 63  1  0
 46 64  1  1
 45 65  1  6
 58 66  1  0
 66 67  2  0
 67 68  1  0
 68 33  2  0
 33 69  1  0
 69 70  2  0
 70 66  1  0
M  END
>  <MOLREGNO>
1822013

>  <CHEMBLID>
CHEMBL3357860

>  <SYNONYMS>


>  <MAX_PHASE>
0

>  <MOLWEIGHT>
902.9

>  <ALOGP>
6.97

>  <PSA>
185.36

>  <HBA>
16

>  <HBD>
2

>  <RO5>
3

>  <RTB>
12

>  <RO3>
N

>  <ACD_MOST_APKA>
9.64

>  <ACD_MOST_BPKA>


>  <ACD_LOGP>
6.27

>  <ACD_LOGD>
6.27

>  <AROMATIC_RINGS>
5

>  <HEAVY_ATOMS>
66

>  <QED_WEIGHTED>
.12

>  <HBA_LIPINSKI>
16

>  <HBD_LIPINSKI>
2

>  <NUM_LIPINSKI_RO5_VIOLATIONS>
3

>  <MW_MONOISOTOPIC>
902.2786

>  <MOLECULAR_SPECIES>
NEUTRAL

>  <FULL_MOLFORMULA>
C50H46O16

$$$$
